  
       XFOIL         Version 6.99
  
 Calculated polar for: NACA 0012                                       
  
 1 1 Reynolds number fixed          Mach number fixed         
  
 xtrf =   1.000 (top)        1.000 (bottom)  
 Mach =   0.000     Re =     0.000 e 6     Ncrit =   9.000  9.000
  
   alpha    CL        CD       CDp       CM     Top_Xtr  Bot_Xtr  Top_Itr  Bot_Itr
  ------ -------- --------- --------- -------- -------- -------- -------- --------
   2.000   0.2416   0.00000  -0.00107  -0.0028   0.0000   0.0000   0.0000   0.0000
   3.000   0.3623   0.00000  -0.00108  -0.0042   0.0000   0.0000   0.0000   0.0000
   4.000   0.4829   0.00000  -0.00109  -0.0056   0.0000   0.0000   0.0000   0.0000
